[General]
network = LN
sim-time-limit = 250000s
**.tic[*].hopCount.result-recording-modes = +vector
*.numCentralNodes = ${N=4..20 step 2}
repeat = 4
